[Format]      =  1
[Precision]   =  1e-008
[MinAngle]    =  30
[Depth]       =  12
[LengthUnits] =  millimeters
[ProblemType] =  planar
[Coordinates] =  cartesian
[PrevSoln] = ""
[dT] = 0
[Comment]     =  "Add comments here."
[PointProps]   = 0
[BdryProps]   = 0
[BlockProps]  = 11
  <BeginBlock>
    <BlockName> = "Iron, Pure"
    <Kx> = 83
    <Ky> = 83
    <Kt> = 3
    <qv> = 0
    <TKPoints> = 6
      273	83
      473	66
      673	53
      873	41
      1073	32
      1273	30
  <EndBlock>
  <BeginBlock>
    <BlockName> = "Polystyrene"
    <Kx> = 0.025000000000000001
    <Ky> = 0.025000000000000001
    <Kt> = 3
    <qv> = 0
  <EndBlock>
  <BeginBlock>
    <BlockName> = "e1"
    <Kx> = 2.6498996896116669
    <Ky> = 2.6498996896116669
    <Kt> = 0
    <qv> = 0
  <EndBlock>
  <BeginBlock>
    <BlockName> = "e2"
    <Kx> = 0.12953316809300527
    <Ky> = 0.12953316809300527
    <Kt> = 0
    <qv> = 0
  <EndBlock>
  <BeginBlock>
    <BlockName> = "e3"
    <Kx> = 14.398967120915913
    <Ky> = 14.398967120915913
    <Kt> = 0
    <qv> = 0
  <EndBlock>
  <BeginBlock>
    <BlockName> = "e4"
    <Kx> = 0.042882574356338271
    <Ky> = 0.042882574356338271
    <Kt> = 0
    <qv> = 0
  <EndBlock>
  <BeginBlock>
    <BlockName> = "e5"
    <Kx> = 37.197476986533054
    <Ky> = 37.197476986533054
    <Kt> = 0
    <qv> = 0
  <EndBlock>
  <BeginBlock>
    <BlockName> = "e6"
    <Kx> = 0.015664246064106369
    <Ky> = 0.015664246064106369
    <Kt> = 0
    <qv> = 0
  <EndBlock>
  <BeginBlock>
    <BlockName> = "e7"
    <Kx> = 142.03015659052124
    <Ky> = 142.03015659052124
    <Kt> = 0
    <qv> = 0
  <EndBlock>
  <BeginBlock>
    <BlockName> = "Air"
    <Kx> = 0.018100000000000002
    <Ky> = 0.018100000000000002
    <Kt> = 3
    <qv> = 0
    <TKPoints> = 18
      200	0.018100000000000002
      250	0.0223
      300	0.026100000000000002
      350	0.029700000000000001
      400	0.033099999999999997
      450	0.036299999999999999
      500	0.0395
      550	0.042599999999999999
      600	0.045600000000000002
      700	0.051299999999999998
      800	0.056899999999999999
      900	0.0625
      1000	0.067199999999999996
      1200	0.075899999999999995
      1400	0.083500000000000005
      1600	0.090399999999999994
      1800	0.097000000000000003
      2000	0.1032
  <EndBlock>
  <BeginBlock>
    <BlockName> = "Copper, Pure"
    <Kx> = 401
    <Ky> = 401
    <Kt> = 3
    <qv> = 0
    <TKPoints> = 6
      273	401
      473	389
      673	378
      873	366
      1073	352
      1273	336
  <EndBlock>
[ConductorProps]  = 1
  <BeginConductor>
    <ConductorName> = "Coil"
    <Tc> = 0
    <qc> = 4.7999999999999998
    <ConductorType> = 0
  <EndConductor>
[NumPoints] = 46
-6.36958	-7.5	0	0	0
-2.5482	-7.5	0	0	0
-2.5482	7.5	0	0	0
-6.36958	7.5	0	0	0
-6.36958	6.7000000000000002	0	0	0
-3.2999999999999998	6.7000000000000002	0	0	0
-3.2999999999999998	7.7719600000000002e-016	0	0	0
-3.2999999999999998	-6.7000000000000002	0	0	0
-6.36958	-6.7000000000000002	0	0	0
-6.36958	-6.6500000000000004	0	0	0
-3.3993600000000002	-6.6500000000000004	0	0	0
-3.3993600000000002	6.6500000000000004	0	0	0
-6.36958	6.6500000000000004	0	0	0
-2.4981499999999999	-7.5	0	0	0
2.4991300000000001	-7.5	0	0	0
2.4991300000000001	7.5	0	0	0
-2.4981499999999999	7.5	0	0	0
2.5491600000000001	-7.5	0	0	0
6.3699700000000004	-7.5	0	0	0
6.3699700000000004	-6.7000000000000002	0	0	0
3.2999999999999998	-6.7000000000000002	0	0	0
3.2999999999999998	-7.7719600000000002e-016	0	0	0
3.2999999999999998	6.7000000000000002	0	0	0
6.3699700000000004	6.7000000000000002	0	0	0
6.3699700000000004	7.5	0	0	0
2.5491600000000001	7.5	0	0	0
3.3986299999999998	-6.6500000000000004	0	0	0
6.3699700000000004	-6.6500000000000004	0	0	0
6.3699700000000004	6.6500000000000004	0	0	0
3.3986299999999998	6.6500000000000004	0	0	0
0.000195	14.7599	0	0	0
0.000195	-14.7599	0	0	0
0.000195	-14.970755714285714	0	0	0
0.000195	14.970755714285714	0	0	0
0.000195	-15.181611428571427	0	0	0
0.000195	15.181611428571427	0	0	0
0.000195	-15.392467142857145	0	0	0
0.000195	15.392467142857145	0	0	0
0.000195	-15.603322857142858	0	0	0
0.000195	15.603322857142858	0	0	0
0.000195	-15.81417857142857	0	0	0
0.000195	15.81417857142857	0	0	0
0.000195	-16.025034285714284	0	0	0
0.000195	16.025034285714284	0	0	0
0.000195	-16.235890000000001	0	0	0
0.000195	16.235890000000001	0	0	0
[NumSegments] = 30
0	1	-1	0	0	0	0
1	2	-1	0	0	0	0
2	3	-1	0	0	0	0
3	4	-1	0	0	0	0
4	5	-1	0	0	0	0
5	6	-1	0	0	0	0
6	7	-1	0	0	0	0
7	8	-1	0	0	0	0
8	0	-1	0	0	0	0
9	10	-1	0	0	0	1
10	11	-1	0	0	0	1
11	12	-1	0	0	0	1
12	9	-1	0	0	0	1
13	14	-1	0	0	0	0
14	15	-1	0	0	0	0
15	16	-1	0	0	0	0
16	13	-1	0	0	0	0
17	18	-1	0	0	0	0
18	19	-1	0	0	0	0
19	20	-1	0	0	0	0
20	21	-1	0	0	0	0
21	22	-1	0	0	0	0
22	23	-1	0	0	0	0
23	24	-1	0	0	0	0
24	25	-1	0	0	0	0
25	17	-1	0	0	0	0
26	27	-1	0	0	0	1
27	28	-1	0	0	0	1
28	29	-1	0	0	0	1
29	26	-1	0	0	0	1
[NumArcSegments] = 16
30	31	180	1	0	0	0	0
31	30	180	1	0	0	0	0
32	33	180	1	0	0	0	0
33	32	180	1	0	0	0	0
34	35	180	1	0	0	0	0
35	34	180	1	0	0	0	0
36	37	180	1	0	0	0	0
37	36	180	1	0	0	0	0
38	39	180	1	0	0	0	0
39	38	180	1	0	0	0	0
40	41	180	1	0	0	0	0
41	40	180	1	0	0	0	0
42	43	180	1	0	0	0	0
43	42	180	1	0	0	0	0
44	45	180	1	0	0	0	0
45	44	180	1	0	0	0	0
[NumHoles] = 0
[NumBlockLabels] = 13
14.720854508303123	2.068853774666616	3	-1	0	0
14.49235278814885	4.1555593754402542	4	-1	0	0
13.965600300268276	6.2177990416393083	5	-1	0	0
13.143155349182194	8.2126331155634666	6	-1	0	0
12.033796193019848	10.09739032279743	7	-1	0	0
10.652490902544377	11.830573141029516	8	-1	0	0
9.0202349599892511	13.372759179105284	10	-1	0	0
0.5	10.6	1	-1	0	0
0.10000000000000001	0.29999999999999999	11	-1	0	0
3	5.2999999999999998	2	-1	0	0
-3.1000000000000001	5.2000000000000002	11	-1	0	0
5.04	0.70999999999999996	11	-1	0	0
-4.79	0.60999999999999999	11	-1	0	0
